data_LiCoO2
_audit_creation_date              2017-02-24
_audit_creation_method            'Materials Studio'
_symmetry_space_group_name_H-M    'P1'
_symmetry_Int_Tables_number       1
_symmetry_cell_setting            triclinic
loop_
_symmetry_equiv_pos_as_xyz
  x,y,z
_cell_length_a                    2.8140
_cell_length_b                    2.8140
_cell_length_c                    14.0480
_cell_angle_alpha                 90.0000
_cell_angle_beta                  90.0000
_cell_angle_gamma                 120.0000
loop_
_atom_site_label
_atom_site_type_symbol
_atom_site_fract_x
_atom_site_fract_y
_atom_site_fract_z
_atom_site_U_iso_or_equiv
_atom_site_adp_type
_atom_site_occupancy
O1     O     0.00000   0.00000   0.22680   0.00000  Uiso   1.00
O2     O     0.66667   0.33333   0.56013   0.00000  Uiso   1.00
O3     O     0.33333   0.66667   0.89347   0.00000  Uiso   1.00
O4     O     0.00000   0.00000   0.77320   0.00000  Uiso   1.00
O5     O     0.66667   0.33333   0.10653   0.00000  Uiso   1.00
O6     O     0.33333   0.66667   0.43987   0.00000  Uiso   1.00
Co7    Co    0.00000   0.00000   0.00000   0.00000  Uiso   1.00
Co8    Co    0.66667   0.33333   0.33333   0.00000  Uiso   1.00
Co9    Co    0.33333   0.66667   0.66667   0.00000  Uiso   1.00
Li10   Li    0.00000   0.00000   0.50000   0.00000  Uiso   1.00
Li11   Li    0.66667   0.33333   0.83333   0.00000  Uiso   1.00
Li12   Li    0.33333   0.66667   0.16667   0.00000  Uiso   1.00
