data_LiNiO2
_audit_creation_date              2017-02-24
_audit_creation_method            'Materials Studio'
_symmetry_space_group_name_H-M    'R-3M'
_symmetry_Int_Tables_number       166
_symmetry_cell_setting            trigonal
loop_
_symmetry_equiv_pos_as_xyz
  x,y,z
  -y,x-y,z
  -x+y,-x,z
  y,x,-z
  x-y,-y,-z
  -x,-x+y,-z
  -x,-y,-z
  y,-x+y,-z
  x-y,x,-z
  -y,-x,z
  -x+y,y,z
  x,x-y,z
  x+2/3,y+1/3,z+1/3
  -y+2/3,x-y+1/3,z+1/3
  -x+y+2/3,-x+1/3,z+1/3
  y+2/3,x+1/3,-z+1/3
  x-y+2/3,-y+1/3,-z+1/3
  -x+2/3,-x+y+1/3,-z+1/3
  -x+2/3,-y+1/3,-z+1/3
  y+2/3,-x+y+1/3,-z+1/3
  x-y+2/3,x+1/3,-z+1/3
  -y+2/3,-x+1/3,z+1/3
  -x+y+2/3,y+1/3,z+1/3
  x+2/3,x-y+1/3,z+1/3
  x+1/3,y+2/3,z+2/3
  -y+1/3,x-y+2/3,z+2/3
  -x+y+1/3,-x+2/3,z+2/3
  y+1/3,x+2/3,-z+2/3
  x-y+1/3,-y+2/3,-z+2/3
  -x+1/3,-x+y+2/3,-z+2/3
  -x+1/3,-y+2/3,-z+2/3
  y+1/3,-x+y+2/3,-z+2/3
  x-y+1/3,x+2/3,-z+2/3
  -y+1/3,-x+2/3,z+2/3
  -x+y+1/3,y+2/3,z+2/3
  x+1/3,x-y+2/3,z+2/3
_cell_length_a                    2.8755
_cell_length_b                    2.8755
_cell_length_c                    14.1806
_cell_angle_alpha                 90.0000
_cell_angle_beta                  90.0000
_cell_angle_gamma                 120.0000
loop_
_atom_site_label
_atom_site_type_symbol
_atom_site_fract_x
_atom_site_fract_y
_atom_site_fract_z
_atom_site_U_iso_or_equiv
_atom_site_adp_type
_atom_site_occupancy
O1     O     0.00000   0.00000   0.25850   0.00000  Uiso   1.00
Li2    Ni    0.00000   0.00000   0.00000   0.00000  Uiso   1.00
Li1    Li    0.00000   0.00000   0.50000   0.00000  Uiso   1.00
loop_
_geom_bond_atom_site_label_1
_geom_bond_atom_site_label_2
_geom_bond_distance
_geom_bond_site_symmetry_2
_ccdc_geom_bond_type
O1     Li2     1.970   13    S
O1     Li2     1.970   13_455 S
O1     Li2     1.970   13_445 S
Li2    O1      1.970   25_444 S
Li2    O1      1.970   25_544 S
Li2    O1      1.970   25_554 S
Li2    O1      1.970   16_445 S
Li2    O1      1.970   16_455 S
Li2    O1      1.970   16    S
